Analizador_de_espectro
*SPICE Netlist generated by Advanced Sim server on 16/09/2017 22:49:26

*Schematic Netlist:
L1 NetD2_2 VCC 47uH

.SAVE 0 NetD2_2 VCC @L1[i] @L1[p]

*PLOT TRAN -1 1 A=NetD2_2
*PLOT OP -1 1 A=NetD2_2

*Selected Circuit Analyses:
.TRAN 2E-8 5E-6 0 2E-8
.OP

.END
