Analizador_de_espectro
*SPICE Netlist generated by Advanced Sim server on 25/09/2017 11:44:19

*Schematic Netlist:

.SAVE 0


*Selected Circuit Analyses:
.TRAN 2E-8 5E-6 0 2E-8
.OP

.END
